  Page 1                                    Mon Jan 15 19:26:15 2018

  ******************************************************************
  *                           E P A N E T                          *
  *                   Hydraulic and Water Quality                  *
  *                   Analysis for Pipe Networks                   *
  *                         Version 2.00.12                        *
  ******************************************************************
  
  Analysis begun Mon Jan 15 19:26:15 2018

  WARNING: Negative pressures at 0:00:00 hrs.
  WARNING: FCV 2003 open but cannot deliver flow at 0:00:00 hrs.
  
  Analysis ended Mon Jan 15 19:26:15 2018
