  Page 1                                    Mon Feb 19 20:07:34 2018

  ******************************************************************
  *                           E P A N E T                          *
  *                   Hydraulic and Water Quality                  *
  *                   Analysis for Pipe Networks                   *
  *                         Version 2.00.12                        *
  ******************************************************************
  
  Analysis begun Mon Feb 19 20:07:34 2018

  Analysis ended Mon Feb 19 20:07:34 2018
