  Page 1                                    Tue Nov 28 23:14:05 2017

  ******************************************************************
  *                           E P A N E T                          *
  *                   Hydraulic and Water Quality                  *

  Page 2                                                                

  *                   Analysis for Pipe Networks                   *
  *                         Version 2.00.12                        *

  Page 3                                                                

  ******************************************************************
  

  Page 4                                                                

   
      Input Data File ................... C:/Users/sk8er/Documents/git/RISE-power-water-ss-1phase/data_water/en-inputs/en-input.inp

  Page 5                                                                

      Number of Junctions................ 37
      Number of Reservoirs............... 3

  Page 6                                                                

      Number of Tanks ................... 0
      Number of Pipes ................... 41

  Page 7                                                                

      Number of Pumps ................... 2
      Number of Valves .................. 0

  Page 8                                                                

      Headloss Formula .................. Hazen-Williams
      Hydraulic Timestep ................ 1.00 min

  Page 9                                                                

      Hydraulic Accuracy ................ 0.001000
      Status Check Frequency ............ 2

  Page 10                                                                

      Maximum Trials Checked ............ 10
      Damping Limit Threshold ........... 0.000000

  Page 11                                                                

      Maximum Trials .................... 40
      Quality Analysis .................. None

  Page 12                                                                

      Specific Gravity .................. 1.00
      Relative Kinematic Viscosity ...... 1.00

  Page 13                                                                

      Relative Chemical Diffusivity ..... 1.00
      Demand Multiplier ................. 1.00

  Page 14                                                                

      Total Duration .................... 1.00 min
      Reporting Criteria:

  Page 15                                                                

         No Nodes
         No Links

  Page 16                                                                

   
  Analysis begun Tue Nov 28 23:14:05 2017


  Page 17                                                                

   
  Hydraulic Status:

  Page 18                                                                

  -----------------------------------------------------------------------
     0:00:00: Balanced after 11 trials

  Page 19                                                                

     0:00:00: Reservoir 21 is emptying
     0:00:00: Reservoir 22 is emptying

  Page 20                                                                

     0:00:00: Reservoir 23 is emptying
   

  Page 21                                                                

     0:01:00: Balanced after 1 trials
   

  Page 22                                                                

  Analysis ended Tue Nov 28 23:14:05 2017
