  Page 1                                    Tue Jan 16 01:27:52 2018

  ******************************************************************
  *                           E P A N E T                          *
  *                   Hydraulic and Water Quality                  *
  *                   Analysis for Pipe Networks                   *
  *                         Version 2.00.12                        *
  ******************************************************************
  
  Analysis begun Tue Jan 16 01:27:52 2018

  WARNING: Negative pressures at 0:00:00 hrs.
  WARNING: FCV 2001 open but cannot deliver flow at 0:00:00 hrs.
  WARNING: FCV 2007 open but cannot deliver flow at 0:00:00 hrs.
  WARNING: FCV 2016 open but cannot deliver flow at 0:00:00 hrs.
  WARNING: FCV 2018 open but cannot deliver flow at 0:00:00 hrs.
  
  Analysis ended Tue Jan 16 01:27:52 2018
