  Page 1                                    Thu Aug 03 00:12:59 2017

  ******************************************************************
  *                           E P A N E T                          *
  *                   Hydraulic and Water Quality                  *
  *                   Analysis for Pipe Networks                   *
  *                         Version 2.00.12                        *
  ******************************************************************
  
  Analysis begun Thu Aug 03 00:12:59 2017

  Analysis ended Thu Aug 03 00:12:59 2017
