  Page 1                                    Tue Dec 12 20:40:33 2017

  ******************************************************************
  *                           E P A N E T                          *
  *                   Hydraulic and Water Quality                  *
  *                   Analysis for Pipe Networks                   *
  *                         Version 2.00.12                        *
  ******************************************************************
  
  Analysis begun Tue Dec 12 20:40:33 2017

  WARNING: Maximum trials exceeded at 0:00:00 hrs. System may be unstable.
  WARNING: FCV 2003 open but cannot deliver flow at 0:00:00 hrs.
  WARNING: FCV 2016 open but cannot deliver flow at 0:00:00 hrs.
  WARNING: FCV 2018 open but cannot deliver flow at 0:00:00 hrs.
  
  WARNING: Maximum trials exceeded at 1:00:00 hrs. System may be unstable.
  WARNING: FCV 2003 open but cannot deliver flow at 1:00:00 hrs.
  WARNING: FCV 2016 open but cannot deliver flow at 1:00:00 hrs.
  WARNING: FCV 2018 open but cannot deliver flow at 1:00:00 hrs.
  WARNING: FCV 2019 open but cannot deliver flow at 1:00:00 hrs.
  
  Analysis ended Tue Dec 12 20:40:33 2017
