  Page 1                                    Thu Jan 25 14:40:55 2018

  ******************************************************************
  *                           E P A N E T                          *
  *                   Hydraulic and Water Quality                  *
  *                   Analysis for Pipe Networks                   *
  *                         Version 2.00.12                        *
  ******************************************************************
  
  Analysis begun Thu Jan 25 14:40:55 2018

  WARNING: FCV 2003 open but cannot deliver flow at 0:00:00 hrs.
  
  WARNING: FCV 2003 open but cannot deliver flow at 0:00:01 hrs.
  
  Analysis ended Thu Jan 25 14:40:55 2018
