  Page 1                                    Tue Jan 23 20:40:34 2018

  ******************************************************************
  *                           E P A N E T                          *
  *                   Hydraulic and Water Quality                  *
  *                   Analysis for Pipe Networks                   *
  *                         Version 2.00.12                        *
  ******************************************************************
  
  Analysis begun Tue Jan 23 20:40:34 2018

  WARNING: FCV 2001 open but cannot deliver flow at 0:00:00 hrs.
  WARNING: FCV 2002 open but cannot deliver flow at 0:00:00 hrs.
  WARNING: FCV 2003 open but cannot deliver flow at 0:00:00 hrs.
  WARNING: FCV 2007 open but cannot deliver flow at 0:00:00 hrs.
  WARNING: FCV 2008 open but cannot deliver flow at 0:00:00 hrs.
  
  WARNING: FCV 2001 open but cannot deliver flow at 0:00:01 hrs.
  WARNING: FCV 2002 open but cannot deliver flow at 0:00:01 hrs.
  WARNING: FCV 2003 open but cannot deliver flow at 0:00:01 hrs.
  WARNING: FCV 2007 open but cannot deliver flow at 0:00:01 hrs.
  WARNING: FCV 2008 open but cannot deliver flow at 0:00:01 hrs.
  
  Analysis ended Tue Jan 23 20:40:34 2018
