  Page 1                                    Tue Sep 12 16:42:27 2017

  ******************************************************************
  *                           E P A N E T                          *
  *                   Hydraulic and Water Quality                  *
  *                   Analysis for Pipe Networks                   *
  *                         Version 2.00.12                        *
  ******************************************************************
  
  Analysis begun Tue Sep 12 16:42:27 2017

  Analysis ended Tue Sep 12 16:42:27 2017
