  Page 1                                    Sun Jul 30 22:14:26 2017

  ******************************************************************
  *                           E P A N E T                          *
  *                   Hydraulic and Water Quality                  *
  *                   Analysis for Pipe Networks                   *
  *                         Version 2.00.12                        *
  ******************************************************************
  
  Analysis begun Sun Jul 30 22:14:26 2017

  Analysis ended Sun Jul 30 22:14:26 2017
