  Page 1                                    Tue Aug 01 13:19:45 2017

  ******************************************************************
  *                           E P A N E T                          *
  *                   Hydraulic and Water Quality                  *
  *                   Analysis for Pipe Networks                   *
  *                         Version 2.00.12                        *
  ******************************************************************
  
  Analysis begun Tue Aug 01 13:19:45 2017

  Analysis ended Tue Aug 01 13:19:45 2017
