  Page 1                                    Thu Jan 18 17:29:40 2018

  ******************************************************************
  *                           E P A N E T                          *
  *                   Hydraulic and Water Quality                  *
  *                   Analysis for Pipe Networks                   *
  *                         Version 2.00.12                        *
  ******************************************************************
  
  Analysis begun Thu Jan 18 17:29:40 2018

  WARNING: FCV 2001 open but cannot deliver flow at 0:00:00 hrs.
  WARNING: FCV 2002 open but cannot deliver flow at 0:00:00 hrs.
  WARNING: FCV 2003 open but cannot deliver flow at 0:00:00 hrs.
  WARNING: FCV 2007 open but cannot deliver flow at 0:00:00 hrs.
  WARNING: FCV 2008 open but cannot deliver flow at 0:00:00 hrs.
  WARNING: FCV 2016 open but cannot deliver flow at 0:00:00 hrs.
  WARNING: FCV 2018 open but cannot deliver flow at 0:00:00 hrs.
  
  Analysis ended Thu Jan 18 17:29:40 2018
