  Page 1                                    Thu Feb 08 16:44:48 2018

  ******************************************************************
  *                           E P A N E T                          *
  *                   Hydraulic and Water Quality                  *
  *                   Analysis for Pipe Networks                   *
  *                         Version 2.00.12                        *
  ******************************************************************
  
  Analysis begun Thu Feb 08 16:44:48 2018

  WARNING: Negative pressures at 0:00:00 hrs.
  WARNING: FCV 2002 open but cannot deliver flow at 0:00:00 hrs.
  WARNING: Pump 7 closed because cannot deliver head at 0:00:00 hrs.
  
  Analysis ended Thu Feb 08 16:44:48 2018
