  Page 1                                    Tue Mar 12 12:37:30 2019

  ******************************************************************
  *                           E P A N E T                          *
  *                   Hydraulic and Water Quality                  *
  *                   Analysis for Pipe Networks                   *
  *                         Version 2.00.12                        *
  ******************************************************************
  
  Analysis begun Tue Mar 12 12:37:30 2019

  WARNING: Negative pressures at 0:00:00 hrs.
  
  Analysis ended Tue Mar 12 12:37:30 2019
