  Page 1                                    Sun Aug 27 23:54:01 2017

  ******************************************************************
  *                           E P A N E T                          *
  *                   Hydraulic and Water Quality                  *
  *                   Analysis for Pipe Networks                   *
  *                         Version 2.00.12                        *
  ******************************************************************
  
  Analysis begun Sun Aug 27 23:54:01 2017

  Analysis ended Sun Aug 27 23:54:01 2017
