  Page 1                                    Wed Sep 20 16:34:48 2017

  ******************************************************************
  *                           E P A N E T                          *
  *                   Hydraulic and Water Quality                  *
  *                   Analysis for Pipe Networks                   *
  *                         Version 2.00.12                        *
  ******************************************************************
  
  Analysis begun Wed Sep 20 16:34:48 2017

  Analysis ended Wed Sep 20 16:34:48 2017
