  Page 1                                    Sun Mar 25 23:41:43 2018

  ******************************************************************
  *                           E P A N E T                          *
  *                   Hydraulic and Water Quality                  *
  *                   Analysis for Pipe Networks                   *
  *                         Version 2.00.12                        *
  ******************************************************************
  
  Analysis begun Sun Mar 25 23:41:43 2018

  WARNING: FCV 2003 open but cannot deliver flow at 0:00:00 hrs.
  WARNING: FCV 2007 open but cannot deliver flow at 0:00:00 hrs.
  WARNING: FCV 2016 open but cannot deliver flow at 0:00:00 hrs.
  WARNING: FCV 2018 open but cannot deliver flow at 0:00:00 hrs.
  WARNING: FCV 2019 open but cannot deliver flow at 0:00:00 hrs.
  
  Analysis ended Sun Mar 25 23:41:43 2018
