  Page 1                                    Tue Nov 28 13:41:55 2017

  ******************************************************************
  *                           E P A N E T                          *
  *                   Hydraulic and Water Quality                  *
  *                   Analysis for Pipe Networks                   *
  *                         Version 2.00.12                        *
  ******************************************************************
  
   
      Input Data File ................... C:/Users/sk8er/Documents/git/RISE-power-water-ss-1phase/data_water/en-inputs/en-input.inp
      Number of Junctions................ 37
      Number of Reservoirs............... 3
      Number of Tanks ................... 0
      Number of Pipes ................... 41
      Number of Pumps ................... 2
      Number of Valves .................. 0
      Headloss Formula .................. Hazen-Williams
      Hydraulic Timestep ................ 1.00 min
      Hydraulic Accuracy ................ 0.001000
      Status Check Frequency ............ 2
      Maximum Trials Checked ............ 10
      Damping Limit Threshold ........... 0.000000
      Maximum Trials .................... 40
      Quality Analysis .................. None
      Specific Gravity .................. 1.00
      Relative Kinematic Viscosity ...... 1.00
      Relative Chemical Diffusivity ..... 1.00
      Demand Multiplier ................. 1.00
      Total Duration .................... 1.00 min
      Reporting Criteria:
         No Nodes
         No Links
   
  Analysis begun Tue Nov 28 13:41:55 2017

   
  Hydraulic Status:
  -----------------------------------------------------------------------
     0:00:00: Balanced after 11 trials
     0:00:00: Reservoir 21 is emptying
     0:00:00: Reservoir 22 is emptying
     0:00:00: Reservoir 23 is emptying
   
     0:01:00: Balanced after 1 trials
   
  Analysis ended Tue Nov 28 13:41:55 2017
