  Page 1                                    Mon Aug 28 17:32:32 2017

  ******************************************************************
  *                           E P A N E T                          *
  *                   Hydraulic and Water Quality                  *
  *                   Analysis for Pipe Networks                   *
  *                         Version 2.00.12                        *
  ******************************************************************
  
  Analysis begun Mon Aug 28 17:32:32 2017

  Analysis ended Mon Aug 28 17:32:32 2017
