  Page 1                                    Wed Jan 17 21:11:01 2018

  ******************************************************************
  *                           E P A N E T                          *
  *                   Hydraulic and Water Quality                  *
  *                   Analysis for Pipe Networks                   *
  *                         Version 2.00.12                        *
  ******************************************************************
  
  Analysis begun Wed Jan 17 21:11:01 2018

  WARNING: Negative pressures at 0:00:00 hrs.
  WARNING: FCV 2003 open but cannot deliver flow at 0:00:00 hrs.
  WARNING: FCV 2015 open but cannot deliver flow at 0:00:00 hrs.
  WARNING: FCV 2016 open but cannot deliver flow at 0:00:00 hrs.
  WARNING: FCV 2018 open but cannot deliver flow at 0:00:00 hrs.
  WARNING: FCV 2019 open but cannot deliver flow at 0:00:00 hrs.
  
  Analysis ended Wed Jan 17 21:11:01 2018
