  Page 1                                    Mon Mar 11 08:12:11 2019

  ******************************************************************
  *                           E P A N E T                          *
  *                   Hydraulic and Water Quality                  *
  *                   Analysis for Pipe Networks                   *
  *                         Version 2.00.12                        *
  ******************************************************************
  
  Analysis begun Mon Mar 11 08:12:11 2019

  WARNING: FCV 2001 open but cannot deliver flow at 0:00:00 hrs.
  WARNING: FCV 2002 open but cannot deliver flow at 0:00:00 hrs.
  WARNING: FCV 2003 open but cannot deliver flow at 0:00:00 hrs.
  WARNING: FCV 2007 open but cannot deliver flow at 0:00:00 hrs.
  WARNING: FCV 2008 open but cannot deliver flow at 0:00:00 hrs.
  
  Analysis ended Mon Mar 11 08:12:11 2019
