  Page 1                                    Sun Jul 30 19:56:24 2017

  ******************************************************************
  *                           E P A N E T                          *
  *                   Hydraulic and Water Quality                  *
  *                   Analysis for Pipe Networks                   *
  *                         Version 2.00.12                        *
  ******************************************************************
  
  Analysis begun Sun Jul 30 19:56:24 2017

  WARNING: Negative pressures at 0:00:00 hrs.
  WARNING: Pump 42 open but exceeds maximum flow at 0:00:00 hrs.
  
  WARNING: Negative pressures at 0:00:10 hrs.
  WARNING: Pump 42 open but exceeds maximum flow at 0:00:10 hrs.
  
  Analysis ended Sun Jul 30 19:56:24 2017
