  Page 1                                    Mon Sep 18 00:00:04 2017

  ******************************************************************
  *                           E P A N E T                          *
  *                   Hydraulic and Water Quality                  *
  *                   Analysis for Pipe Networks                   *
  *                         Version 2.00.12                        *
  ******************************************************************
  
  Analysis begun Mon Sep 18 00:00:04 2017

  Analysis ended Mon Sep 18 00:00:04 2017
