  Page 1                                    Wed Nov 22 00:52:28 2017

  ******************************************************************
  *                           E P A N E T                          *
  *                   Hydraulic and Water Quality                  *
  *                   Analysis for Pipe Networks                   *
  *                         Version 2.00.12                        *
  ******************************************************************
  
  Input Error 215: Junction 5 is a duplicate ID.
  
  Input Error 203: Pipe 1 refers to undefined node.
  
  Input Error 203: Pipe 2 refers to undefined node.
  
  Input Error 215: Pump 4 is a duplicate ID.
  
  Input Error 215: Pump 20 is a duplicate ID.
  
  Input Error 200: one or more errors in input file.