  Page 1                                    Sat Dec 16 23:07:40 2017

  ******************************************************************
  *                           E P A N E T                          *
  *                   Hydraulic and Water Quality                  *
  *                   Analysis for Pipe Networks                   *
  *                         Version 2.00.12                        *
  ******************************************************************
  
  Analysis begun Sat Dec 16 23:07:40 2017

  WARNING: FCV 2001 open but cannot deliver flow at 0:00:00 hrs.
  WARNING: FCV 2002 open but cannot deliver flow at 0:00:00 hrs.
  WARNING: FCV 2003 open but cannot deliver flow at 0:00:00 hrs.
  WARNING: FCV 2007 open but cannot deliver flow at 0:00:00 hrs.
  WARNING: FCV 2008 open but cannot deliver flow at 0:00:00 hrs.
  WARNING: FCV 2016 open but cannot deliver flow at 0:00:00 hrs.
  WARNING: FCV 2018 open but cannot deliver flow at 0:00:00 hrs.
  
  WARNING: FCV 2001 open but cannot deliver flow at 0:22:32 hrs.
  WARNING: FCV 2002 open but cannot deliver flow at 0:22:32 hrs.
  WARNING: FCV 2003 open but cannot deliver flow at 0:22:32 hrs.
  WARNING: FCV 2007 open but cannot deliver flow at 0:22:32 hrs.
  WARNING: FCV 2008 open but cannot deliver flow at 0:22:32 hrs.
  
  WARNING: Negative pressures at 1:00:00 hrs.
  WARNING: FCV 2001 open but cannot deliver flow at 1:00:00 hrs.
  WARNING: FCV 2002 open but cannot deliver flow at 1:00:00 hrs.
  WARNING: FCV 2003 open but cannot deliver flow at 1:00:00 hrs.
  WARNING: FCV 2007 open but cannot deliver flow at 1:00:00 hrs.
  WARNING: FCV 2008 open but cannot deliver flow at 1:00:00 hrs.
  
  Analysis ended Sat Dec 16 23:07:40 2017
