  Page 1                                    Sat Jan 20 14:38:55 2018

  ******************************************************************
  *                           E P A N E T                          *
  *                   Hydraulic and Water Quality                  *
  *                   Analysis for Pipe Networks                   *
  *                         Version 2.00.12                        *
  ******************************************************************
  
  Analysis begun Sat Jan 20 14:38:55 2018

  WARNING: FCV 2002 open but cannot deliver flow at 0:00:00 hrs.
  
  Analysis ended Sat Jan 20 14:38:55 2018
